functions/OneTimeScripts/validationAgainstOpenDSS_MATLAB/ieee123_1ph_created/results/powers12.csv
Element, Terminal, P(kW), Q(kvar),  P_Normal, Q_Normal, P_Emergency, Q_Emergency
"Line.L115"             ,   1,       678.2,       298.8,         0.0,         0.0,         0.0,         0.0
"Line.L115"             ,   2,      -676.0,      -294.4
"Line.L1"               ,   1,         5.3,         2.7,         0.0,         0.0,         0.0,         0.0
"Line.L1"               ,   2,        -5.3,        -2.7
"Line.L2"               ,   1,        26.5,        13.3,         0.0,         0.0,         0.0,         0.0
"Line.L2"               ,   2,       -26.5,       -13.3
"Line.L3"               ,   1,       633.6,       273.1,         0.0,         0.0,         0.0,         0.0
"Line.L3"               ,   2,      -632.1,      -270.2
"Line.L4"               ,   1,        10.6,         5.3,         0.0,         0.0,         0.0,         0.0
"Line.L4"               ,   2,       -10.6,        -5.3
"Line.L5"               ,   1,        15.9,         8.0,         0.0,         0.0,         0.0,         0.0
"Line.L5"               ,   2,       -15.9,        -8.0
"Line.L6"               ,   1,        10.6,         5.3,         0.0,         0.0,         0.0,         0.0
"Line.L6"               ,   2,       -10.6,        -5.3
"Line.L7"               ,   1,       626.8,       267.5,         0.0,         0.0,         0.0,         0.0
"Line.L7"               ,   2,      -625.9,      -265.6
"Line.L8"               ,   1,         5.3,         2.7,         0.0,         0.0,         0.0,         0.0
"Line.L8"               ,   2,        -5.3,        -2.7
"Line.L9"               ,   1,        13.2,        13.3,         0.0,         0.0,         0.0,         0.0
"Line.L9"               ,   2,       -13.2,       -13.3
"Line.L10"              ,   1,       607.4,       249.7,         0.0,         0.0,         0.0,         0.0
"Line.L10"              ,   2,      -606.1,      -247.0
"Line.L11"              ,   1,        15.9,         8.0,         0.0,         0.0,         0.0,         0.0
"Line.L11"              ,   2,       -15.9,        -8.0
"Line.L12"              ,   1,        26.5,        13.3,         0.0,         0.0,         0.0,         0.0
"Line.L12"              ,   2,       -26.5,       -13.3
"Line.L13"              ,   1,       213.5,       174.5,         0.0,         0.0,         0.0,         0.0
"Line.L13"              ,   2,      -212.9,      -173.2
"Line.L14"              ,   1,        10.6,         5.3,         0.0,         0.0,         0.0,         0.0
"Line.L14"              ,   2,       -10.6,        -5.3
"Line.L15"              ,   1,         5.3,         2.7,         0.0,         0.0,         0.0,         0.0
"Line.L15"              ,   2,        -5.3,        -2.7
"Line.L16"              ,   1,        10.6,         5.3,         0.0,         0.0,         0.0,         0.0
"Line.L16"              ,   2,       -10.6,        -5.3
"Line.L17"              ,   1,         5.3,         2.7,         0.0,         0.0,         0.0,         0.0
"Line.L17"              ,   2,        -5.3,        -2.7
"Line.L18"              ,   1,        21.2,        10.6,         0.0,         0.0,         0.0,         0.0
"Line.L18"              ,   2,       -21.2,       -10.6
"Line.L19"              ,   1,        61.0,        37.2,         0.0,         0.0,         0.0,         0.0
"Line.L19"              ,   2,       -61.0,       -37.2
"Line.L20"              ,   1,        10.6,         5.3,         0.0,         0.0,         0.0,         0.0
"Line.L20"              ,   2,       -10.6,        -5.3
"Line.L21"              ,   1,        10.6,         5.3,         0.0,         0.0,         0.0,         0.0
"Line.L21"              ,   2,       -10.6,        -5.3
"Line.L22"              ,   1,        50.4,        31.9,         0.0,         0.0,         0.0,         0.0
"Line.L22"              ,   2,       -50.4,       -31.8
"Line.L23"              ,   1,        10.6,         5.3,         0.0,         0.0,         0.0,         0.0
"Line.L23"              ,   2,       -10.6,        -5.3
"Line.L24"              ,   1,        39.8,        26.5,         0.0,         0.0,         0.0,         0.0
"Line.L24"              ,   2,       -39.7,       -26.5
"Line.L25"              ,   1,        21.2,        10.6,         0.0,         0.0,         0.0,         0.0
"Line.L25"              ,   2,       -21.2,       -10.6
"Line.L26"              ,   1,        18.5,        15.9,         0.0,         0.0,         0.0,         0.0
"Line.L26"              ,   2,       -18.5,       -15.9
"Line.L27"              ,   1,        10.6,         5.3,         0.0,         0.0,         0.0,         0.0
"Line.L27"              ,   2,       -10.6,        -5.3
"Line.L28"              ,   1,        10.6,         5.3,         0.0,         0.0,         0.0,         0.0
"Line.L28"              ,   2,       -10.6,        -5.3
"Line.L29"              ,   1,        10.6,         5.3,         0.0,         0.0,         0.0,         0.0
"Line.L29"              ,   2,       -10.6,        -5.3
"Line.L30"              ,   1,        21.2,        10.6,         0.0,         0.0,         0.0,         0.0
"Line.L30"              ,   2,       -21.2,       -10.6
"Line.L31"              ,   1,        10.6,         5.3,         0.0,         0.0,         0.0,         0.0
"Line.L31"              ,   2,       -10.6,        -5.3
"Line.L32"              ,   1,         0.0,        -0.0,         0.0,         0.0,         0.0,         0.0
"Line.L32"              ,   2,        -0.0,        -0.0
"Line.L33"              ,   1,         5.3,         2.7,         0.0,         0.0,         0.0,         0.0
"Line.L33"              ,   2,        -5.3,        -2.7
"Line.L34"              ,   1,        15.9,         8.0,         0.0,         0.0,         0.0,         0.0
"Line.L34"              ,   2,       -15.9,        -8.0
"Line.L35"              ,   1,        21.2,        10.6,         0.0,         0.0,         0.0,         0.0
"Line.L35"              ,   2,       -21.2,       -10.6
"Line.L36"              ,   1,        98.7,       109.2,         0.0,         0.0,         0.0,         0.0
"Line.L36"              ,   2,       -98.6,      -109.0
"Line.L37"              ,   1,        10.6,         5.3,         0.0,         0.0,         0.0,         0.0
"Line.L37"              ,   2,       -10.6,        -5.3
"Line.L38"              ,   1,        10.6,         5.3,         0.0,         0.0,         0.0,         0.0
"Line.L38"              ,   2,       -10.6,        -5.3
"Line.L39"              ,   1,         5.3,         2.7,         0.0,         0.0,         0.0,         0.0
"Line.L39"              ,   2,        -5.3,        -2.7
"Line.L40"              ,   1,         5.3,         2.7,         0.0,         0.0,         0.0,         0.0
"Line.L40"              ,   2,        -5.3,        -2.7
"Line.L41"              ,   1,        93.3,       106.4,         0.0,         0.0,         0.0,         0.0
"Line.L41"              ,   2,       -93.3,      -106.3
"Line.L42"              ,   1,        10.6,         5.3,         0.0,         0.0,         0.0,         0.0
"Line.L42"              ,   2,       -10.6,        -5.3
"Line.L43"              ,   1,        77.3,        98.3,         0.0,         0.0,         0.0,         0.0
"Line.L43"              ,   2,       -77.3,       -98.3
"Line.L44"              ,   1,        10.6,         5.3,         0.0,         0.0,         0.0,         0.0
"Line.L44"              ,   2,       -10.6,        -5.3
"Line.L45"              ,   1,        66.7,        93.0,         0.0,         0.0,         0.0,         0.0
"Line.L45"              ,   2,       -66.7,       -92.9
"Line.L46"              ,   1,         5.3,         2.7,         0.0,         0.0,         0.0,         0.0
"Line.L46"              ,   2,        -5.3,        -2.7
"Line.L47"              ,   1,       -14.3,        39.8,         0.0,         0.0,         0.0,         0.0
"Line.L47"              ,   2,        14.3,       -39.8
"Line.L48"              ,   1,        53.1,        33.2,         0.0,         0.0,         0.0,         0.0
"Line.L48"              ,   2,       -53.1,       -33.2
"Line.L49"              ,   1,        15.9,         8.0,         0.0,         0.0,         0.0,         0.0
"Line.L49"              ,   2,       -15.9,        -8.0
"Line.L50"              ,   1,         5.3,         2.6,         0.0,         0.0,         0.0,         0.0
"Line.L50"              ,   2,        -5.3,        -2.6
"Line.L51"              ,   1,         0.0,        -0.0,         0.0,         0.0,         0.0,         0.0
"Line.L51"              ,   2,         0.0,         0.0
"Line.L52"              ,   1,       354.8,        52.8,         0.0,         0.0,         0.0,         0.0
"Line.L52"              ,   2,      -354.5,       -52.3
"Line.L53"              ,   1,       343.9,        47.0,         0.0,         0.0,         0.0,         0.0
"Line.L53"              ,   2,      -343.8,       -46.6
"Line.L54"              ,   1,        10.6,         5.3,         0.0,         0.0,         0.0,         0.0
"Line.L54"              ,   2,       -10.6,        -5.3
"Line.L55"              ,   1,       333.2,        41.3,         0.0,         0.0,         0.0,         0.0
"Line.L55"              ,   2,      -332.8,       -40.5
"Line.L56"              ,   1,         5.3,         2.7,         0.0,         0.0,         0.0,         0.0
"Line.L56"              ,   2,        -5.3,        -2.7
"Line.L57"              ,   1,         3.9,         5.3,         0.0,         0.0,         0.0,         0.0
"Line.L57"              ,   2,        -3.9,        -5.3
"Line.L58"              ,   1,       328.8,        35.2,         0.0,         0.0,         0.0,         0.0
"Line.L58"              ,   2,      -328.0,       -33.5
"Line.L59"              ,   1,         5.3,         2.7,         0.0,         0.0,         0.0,         0.0
"Line.L59"              ,   2,        -5.3,        -2.7
"Line.L60"              ,   1,         0.0,        -0.0,         0.0,         0.0,         0.0,         0.0
"Line.L60"              ,   2,        -0.0,         0.0
"Line.L61"              ,   1,        51.6,        55.7,         0.0,         0.0,         0.0,         0.0
"Line.L61"              ,   2,       -51.6,       -55.7
"Line.L62"              ,   1,        41.0,        50.4,         0.0,         0.0,         0.0,         0.0
"Line.L62"              ,   2,       -41.0,       -50.4
"Line.L63"              ,   1,        30.3,        45.1,         0.0,         0.0,         0.0,         0.0
"Line.L63"              ,   2,       -30.3,       -45.1
"Line.L64"              ,   1,        10.4,        35.8,         0.0,         0.0,         0.0,         0.0
"Line.L64"              ,   2,       -10.4,       -35.8
"Line.L65"              ,   1,        19.9,         9.3,         0.0,         0.0,         0.0,         0.0
"Line.L65"              ,   2,       -19.9,        -9.3
"Line.L66"              ,   1,        31.9,        15.9,         0.0,         0.0,         0.0,         0.0
"Line.L66"              ,   2,       -31.9,       -15.9
"Line.L67"              ,   1,       135.3,      -100.0,         0.0,         0.0,         0.0,         0.0
"Line.L67"              ,   2,      -135.2,       100.1
"Line.L68"              ,   1,       103.6,        58.6,         0.0,         0.0,         0.0,         0.0
"Line.L68"              ,   2,      -103.5,       -58.5
"Line.L69"              ,   1,        26.5,        13.3,         0.0,         0.0,         0.0,         0.0
"Line.L69"              ,   2,       -26.5,       -13.3
"Line.L70"              ,   1,        15.9,         8.0,         0.0,         0.0,         0.0,         0.0
"Line.L70"              ,   2,       -15.9,        -8.0
"Line.L71"              ,   1,        10.6,         5.3,         0.0,         0.0,         0.0,         0.0
"Line.L71"              ,   2,       -10.6,        -5.3
"Line.L72"              ,   1,        31.9,        15.9,         0.0,         0.0,         0.0,         0.0
"Line.L72"              ,   2,       -31.8,       -15.9
"Line.L73"              ,   1,       103.3,      -116.1,         0.0,         0.0,         0.0,         0.0
"Line.L73"              ,   2,      -103.3,       116.2
"Line.L74"              ,   1,        21.2,        10.6,         0.0,         0.0,         0.0,         0.0
"Line.L74"              ,   2,       -21.2,       -10.6
"Line.L75"              ,   1,        10.6,         5.3,         0.0,         0.0,         0.0,         0.0
"Line.L75"              ,   2,       -10.6,        -5.3
"Line.L76"              ,   1,        64.2,      -152.7,         0.0,         0.0,         0.0,         0.0
"Line.L76"              ,   2,       -64.1,       152.9
"Line.L77"              ,   1,        55.7,       -11.3,         0.0,         0.0,         0.0,         0.0
"Line.L77"              ,   2,       -55.7,        11.3
"Line.L78"              ,   1,        53.5,      -158.2,         0.0,         0.0,         0.0,         0.0
"Line.L78"              ,   2,       -53.5,       158.3
"Line.L79"              ,   1,        10.6,         5.3,         0.0,         0.0,         0.0,         0.0
"Line.L79"              ,   2,       -10.6,        -5.3
"Line.L80"              ,   1,        42.8,      -163.6,         0.0,         0.0,         0.0,         0.0
"Line.L80"              ,   2,       -42.7,       163.9
"Line.L81"              ,   1,        32.1,      -169.2,         0.0,         0.0,         0.0,         0.0
"Line.L81"              ,   2,       -32.0,       169.3
"Line.L82"              ,   1,        16.1,      -177.3,         0.0,         0.0,         0.0,         0.0
"Line.L82"              ,   2,       -16.0,       177.5
"Line.L83"              ,   1,        15.9,         8.0,         0.0,         0.0,         0.0,         0.0
"Line.L83"              ,   2,       -15.9,        -8.0
"Line.L84"              ,   1,         5.4,      -182.8,         0.0,         0.0,         0.0,         0.0
"Line.L84"              ,   2,        -5.3,       182.9
"Line.L85"              ,   1,        10.6,         5.3,         0.0,         0.0,         0.0,         0.0
"Line.L85"              ,   2,       -10.6,        -5.3
"Line.L86"              ,   1,        50.4,       -14.0,         0.0,         0.0,         0.0,         0.0
"Line.L86"              ,   2,       -50.4,        14.0
"Line.L87"              ,   1,        10.6,       -10.0,         0.0,         0.0,         0.0,         0.0
"Line.L87"              ,   2,       -10.6,        10.0
"Line.L88"              ,   1,        42.5,        -9.3,         0.0,         0.0,         0.0,         0.0
"Line.L88"              ,   2,       -42.5,         9.3
"Line.L89"              ,   1,        10.6,       -10.0,         0.0,         0.0,         0.0,         0.0
"Line.L89"              ,   2,       -10.6,        10.0
"Line.L90"              ,   1,        31.8,         0.6,         0.0,         0.0,         0.0,         0.0
"Line.L90"              ,   2,       -31.8,        -0.6
"Line.L91"              ,   1,        10.6,       -10.0,         0.0,         0.0,         0.0,         0.0
"Line.L91"              ,   2,       -10.6,        10.0
"Line.L92"              ,   1,        21.2,        10.6,         0.0,         0.0,         0.0,         0.0
"Line.L92"              ,   2,       -21.2,       -10.6
"Line.L93"              ,   1,        10.6,         5.3,         0.0,         0.0,         0.0,         0.0
"Line.L93"              ,   2,       -10.6,        -5.3
"Line.L94"              ,   1,        10.6,         5.3,         0.0,         0.0,         0.0,         0.0
"Line.L94"              ,   2,       -10.6,        -5.3
"Line.L95"              ,   1,         5.3,         2.7,         0.0,         0.0,         0.0,         0.0
"Line.L95"              ,   2,        -5.3,        -2.7
"Line.L96"              ,   1,        18.5,        15.9,         0.0,         0.0,         0.0,         0.0
"Line.L96"              ,   2,       -18.5,       -15.9
"Line.L97"              ,   1,         7.9,        10.6,         0.0,         0.0,         0.0,         0.0
"Line.L97"              ,   2,        -7.9,       -10.6
"Line.L98"              ,   1,        -2.7,         5.3,         0.0,         0.0,         0.0,         0.0
"Line.L98"              ,   2,         2.7,        -5.3
"Line.L99"              ,   1,         0.0,        -0.0,         0.0,         0.0,         0.0,         0.0
"Line.L99"              ,   2,         0.0,         0.0
"Line.L118"             ,   1,        85.0,        42.6,         0.0,         0.0,         0.0,         0.0
"Line.L118"             ,   2,       -85.0,       -42.6
"Line.L100"             ,   1,        26.6,        13.3,         0.0,         0.0,         0.0,         0.0
"Line.L100"             ,   2,       -26.5,       -13.3
"Line.L101"             ,   1,        58.5,        29.3,         0.0,         0.0,         0.0,         0.0
"Line.L101"             ,   2,       -58.4,       -29.2
"Line.L102"             ,   1,        21.2,        10.6,         0.0,         0.0,         0.0,         0.0
"Line.L102"             ,   2,       -21.2,       -10.6
"Line.L103"             ,   1,        10.6,         5.3,         0.0,         0.0,         0.0,         0.0
"Line.L103"             ,   2,       -10.6,        -5.3
"Line.L104"             ,   1,        21.2,        10.6,         0.0,         0.0,         0.0,         0.0
"Line.L104"             ,   2,       -21.2,       -10.6
"Line.L105"             ,   1,        37.2,        18.6,         0.0,         0.0,         0.0,         0.0
"Line.L105"             ,   2,       -37.2,       -18.6
"Line.L106"             ,   1,        10.6,         5.3,         0.0,         0.0,         0.0,         0.0
"Line.L106"             ,   2,       -10.6,        -5.3
"Line.L107"             ,   1,        37.2,        18.6,         0.0,         0.0,         0.0,         0.0
"Line.L107"             ,   2,       -37.2,       -18.6
"Line.L108"             ,   1,         0.0,        -0.0,         0.0,         0.0,         0.0,         0.0
"Line.L108"             ,   2,         0.0,         0.0
"Line.L109"             ,   1,        26.6,        13.3,         0.0,         0.0,         0.0,         0.0
"Line.L109"             ,   2,       -26.5,       -13.3
"Line.L110"             ,   1,         5.3,         2.7,         0.0,         0.0,         0.0,         0.0
"Line.L110"             ,   2,        -5.3,        -2.7
"Line.L111"             ,   1,        21.2,        10.6,         0.0,         0.0,         0.0,         0.0
"Line.L111"             ,   2,       -21.2,       -10.6
"Line.L112"             ,   1,        15.9,         8.0,         0.0,         0.0,         0.0,         0.0
"Line.L112"             ,   2,       -15.9,        -8.0
"Line.L113"             ,   1,         5.3,         2.7,         0.0,         0.0,         0.0,         0.0
"Line.L113"             ,   2,        -5.3,        -2.7
"Line.L114"             ,   1,       130.6,       125.3,         0.0,         0.0,         0.0,         0.0
"Line.L114"             ,   2,      -130.5,      -125.1
"Line.L116"             ,   1,       366.0,        59.3,         0.0,         0.0,         0.0,         0.0
"Line.L116"             ,   2,      -365.4,       -58.1
"Line.L117"             ,   1,       271.0,       -24.8,         0.0,         0.0,         0.0,         0.0
"Line.L117"             ,   2,      -270.7,        25.4
"Line.SW1"              ,   1,       678.2,       298.8,         0.0,         0.0,         0.0,         0.0
"Line.SW1"              ,   2,      -678.2,      -298.8
"Line.SW2"              ,   1,       366.0,        59.3,         0.0,         0.0,         0.0,         0.0
"Line.SW2"              ,   2,      -366.0,       -59.3
"Line.SW3"              ,   1,       130.6,       125.3,         0.0,         0.0,         0.0,         0.0
"Line.SW3"              ,   2,      -130.6,      -125.3
"Line.SW4"              ,   1,       271.0,       -24.8,         0.0,         0.0,         0.0,         0.0
"Line.SW4"              ,   2,      -271.0,        24.8
"Line.SW5"              ,   1,        85.0,        42.6,         0.0,         0.0,         0.0,         0.0
"Line.SW5"              ,   2,       -85.0,       -42.6
"Line.XFM1"             ,   1,         0.0,         0.0,         0.0,         0.0,         0.0,         0.0
"Line.XFM1"             ,   2,         0.0,         0.0
"Capacitor.C83"         ,   1,         0.0,      -185.6,         0.0,         0.0,         0.0,         0.0
"Capacitor.C83"         ,   2,         0.0,         0.0
"Capacitor.C88"         ,   1,         0.0,       -15.3,         0.0,         0.0,         0.0,         0.0
"Capacitor.C88"         ,   2,         0.0,         0.0
"Capacitor.C90"         ,   1,         0.0,       -15.3,         0.0,         0.0,         0.0,         0.0
"Capacitor.C90"         ,   2,         0.0,         0.0
"Capacitor.C92"         ,   1,         0.0,       -15.3,         0.0,         0.0,         0.0,         0.0
"Capacitor.C92"         ,   2,         0.0,         0.0
"Transformer.REG1A"     ,   1,       678.2,       298.8,         0.0,         0.0,         0.0,         0.0
"Transformer.REG1A"     ,   2,      -678.2,      -298.8
"Transformer.REG2A"     ,   1,        15.9,         8.0,         0.0,         0.0,         0.0,         0.0
"Transformer.REG2A"     ,   2,       -15.9,        -8.0
"Transformer.REG3A"     ,   1,        21.2,        10.6,         0.0,         0.0,         0.0,         0.0
"Transformer.REG3A"     ,   2,       -21.2,       -10.6
"Transformer.REG4A"     ,   1,       271.0,       -24.8,         0.0,         0.0,         0.0,         0.0
"Transformer.REG4A"     ,   2,      -271.0,        24.8
"Load.S1"               ,   1,        10.6,         5.3
"Load.S2"               ,   1,         5.3,         2.7
"Load.S4"               ,   1,        10.6,         5.3
"Load.S5"               ,   1,         5.3,         2.7
"Load.S6"               ,   1,        10.6,         5.3
"Load.S7"               ,   1,         5.3,         2.7
"Load.S9"               ,   1,        10.6,         5.3
"Load.S10"              ,   1,         5.3,         2.7
"Load.S11"              ,   1,        10.6,         5.3
"Load.S12"              ,   1,         5.3,         2.7
"Load.S16"              ,   1,        10.6,         5.3
"Load.S17"              ,   1,         5.3,         2.7
"Load.S19"              ,   1,        10.6,         5.3
"Load.S20"              ,   1,        10.6,         5.3
"Load.S22"              ,   1,        10.6,         5.3
"Load.S24"              ,   1,        10.6,         5.3
"Load.S28"              ,   1,        10.6,         5.3
"Load.S29"              ,   1,        10.6,         5.3
"Load.S30"              ,   1,        10.6,         5.3
"Load.S31"              ,   1,         5.3,         2.7
"Load.S32"              ,   1,         5.3,         2.7
"Load.S33"              ,   1,        10.6,         5.3
"Load.S34"              ,   1,        10.6,         5.3
"Load.S35"              ,   1,        10.6,         5.3
"Load.S37"              ,   1,        10.6,         5.3
"Load.S38"              ,   1,         5.3,         2.7
"Load.S39"              ,   1,         5.3,         2.7
"Load.S41"              ,   1,         5.3,         2.7
"Load.S42"              ,   1,         5.3,         2.7
"Load.S43"              ,   1,        10.6,         5.3
"Load.S45"              ,   1,         5.3,         2.7
"Load.S46"              ,   1,         5.3,         2.7
"Load.S47"              ,   1,        27.9,        19.9
"Load.S48"              ,   1,        55.7,        39.8
"Load.S49"              ,   1,        37.1,        25.2
"Load.S50"              ,   1,        10.6,         5.3
"Load.S51"              ,   1,         5.3,         2.7
"Load.S52"              ,   1,        10.6,         5.3
"Load.S53"              ,   1,        10.6,         5.3
"Load.S55"              ,   1,         5.3,         2.7
"Load.S56"              ,   1,         5.3,         2.7
"Load.S58"              ,   1,         5.3,         2.7
"Load.S59"              ,   1,         5.3,         2.7
"Load.S60"              ,   1,         5.3,         2.7
"Load.S62"              ,   1,        10.6,         5.3
"Load.S63"              ,   1,        10.6,         5.3
"Load.S64"              ,   1,        19.9,         9.3
"Load.S65"              ,   1,        37.1,        26.5
"Load.S66"              ,   1,        19.9,         9.3
"Load.S68"              ,   1,         5.3,         2.7
"Load.S69"              ,   1,        10.6,         5.3
"Load.S70"              ,   1,         5.3,         2.7
"Load.S71"              ,   1,        10.6,         5.3
"Load.S73"              ,   1,        10.6,         5.3
"Load.S74"              ,   1,        10.6,         5.3
"Load.S75"              ,   1,        10.6,         5.3
"Load.S76"              ,   1,        65.0,        47.8
"Load.S77"              ,   1,        10.6,         5.3
"Load.S79"              ,   1,        10.6,         5.3
"Load.S80"              ,   1,        10.6,         5.3
"Load.S82"              ,   1,        10.6,         5.3
"Load.S83"              ,   1,         5.3,         2.7
"Load.S84"              ,   1,         5.3,         2.7
"Load.S85"              ,   1,        10.6,         5.3
"Load.S86"              ,   1,         5.3,         2.7
"Load.S87"              ,   1,        10.6,         5.3
"Load.S88"              ,   1,        10.6,         5.3
"Load.S90"              ,   1,        10.6,         5.3
"Load.S92"              ,   1,        10.6,         5.3
"Load.S94"              ,   1,        10.6,         5.3
"Load.S95"              ,   1,         5.3,         2.7
"Load.S96"              ,   1,         5.3,         2.7
"Load.S98"              ,   1,        10.6,         5.3
"Load.S99"              ,   1,        10.6,         5.3
"Load.S100"             ,   1,        10.6,         5.3
"Load.S102"             ,   1,         5.3,         2.7
"Load.S103"             ,   1,        10.6,         5.3
"Load.S104"             ,   1,        10.6,         5.3
"Load.S106"             ,   1,        10.6,         5.3
"Load.S107"             ,   1,        10.6,         5.3
"Load.S109"             ,   1,        10.6,         5.3
"Load.S111"             ,   1,         5.3,         2.7
"Load.S112"             ,   1,         5.3,         2.7
"Load.S113"             ,   1,        10.6,         5.3
"Load.S114"             ,   1,         5.3,         2.7
"PVSystem.9"            ,   1,       -13.3,         0.0
"PVSystem.28"           ,   1,       -13.3,         0.0
"PVSystem.48"           ,   1,       -70.0,         0.0
"PVSystem.58"           ,   1,        -6.7,         0.0
"PVSystem.65"           ,   1,       -46.7,         0.0
"PVSystem.76"           ,   1,       -81.7,         0.0
"PVSystem.87"           ,   1,       -13.3,         0.0
"PVSystem.100"          ,   1,       -13.3,         0.0
"Storage.BATTERY9"      ,   1,         0.0,         0.0
"Storage.BATTERY28"     ,   1,         0.0,         0.0
"Storage.BATTERY48"     ,   1,         0.0,         0.0
"Storage.BATTERY58"     ,   1,         0.0,         0.0
"Storage.BATTERY65"     ,   1,         0.0,         0.0
"Storage.BATTERY76"     ,   1,         0.0,         0.0
"Storage.BATTERY87"     ,   1,         0.0,         0.0
"Storage.BATTERY100"    ,   1,         0.0,         0.0
